LAMMPS (29 Oct 2020)
################################################################################################################
# Template input file to run umbrella sampling
# run 200000 steps0
# read from restart file
# deleted velocity line
# reset timestep to 0 befre running the simulation
################################################################################################################

################################################################################################################
# VARIABLES
################################################################################################################
clear
variable rcut        equal 17.5     #est. 3.5*diameter
variable epsilon     equal 0.8126   #unit conversion
variable sigma       equal 4.7
variable shift       equal 23.5     #center particle radius
variable epsilon_cp  equal 0.5067
variable sigma_cp    equal 5.2
variable epsilon_pp  equal 1.1926
variable sigma_pp    equal 4.7
variable bondKeq     equal 2.9876
variable bondReq1    equal 23.5
variable bondReq2    equal 4.7
variable dt          equal 4.0
variable startTemp   equal 275.0
variable stopTemp    equal 275.0
variable Tdamp       equal 100.0
variable springKeq   equal 35.0
variable velocity    equal -0.0001
variable springX     equal 200.0
variable springY     equal 0.0
variable springZ     equal 0.0
variable springReq   equal 0.0

################################################################################################################
# SETUP
################################################################################################################
units		real
atom_style	molecular
atom_modify     sort 0 0.0       #print out in frames in order

read_data       data.twoParticles
Reading data file ...
  orthogonal box = (0.0000000 0.0000000 0.0000000) to (1000.0000 1000.0000 1000.0000)
  reading atoms ...
  12002 atoms
  scanning bonds ...
  reading bonds ...
  12000 bonds
Finding 1-2 1-3 1-4 neighbors ...
   600 = max # of 1-2 neighbors
   600 = max # of 1-3 neighbors
velocity        all create 275 4834834 rot yes mom yes dist gaussian

#read_restart    generic.restart

pair_style	lj/expand 17.5
pair_coeff      1 1 0 0 0
pair_coeff      1 2 0.8126 4.7 23.5
pair_coeff      1 3 0.8126 4.7 23.5
pair_coeff      2 2 0.8126 4.7 0
pair_coeff      2 3 0.5067 5.2 0
pair_coeff      3 3 1.1926 4.7 0
special_bonds   lj 0.0 1.0 1.0   #turn off LJ interaction for directly bonded atoms (1-2)
Finding 1-2 1-3 1-4 neighbors ...
   600 = max # of 1-2 neighbors
   600 = max # of 1-3 neighbors

bond_style      harmonic
bond_coeff      1 2.9876 23.5
bond_coeff      2 2.9876 4.7
bond_coeff      3 2.9876 4.7
bond_coeff      4 2.9876 4.7

neighbor	2.0 bin            #consider cutoff +2 as neighbor
neigh_modify	every 1 delay 0 check yes     #every x step//no delay//check the neighbor list to see if need to update

restart         10 nvt.a.restart nvt.b.restart  #print restart every 10 ?steps?

timestep	4

################################################################################################################
# SIMULATION
################################################################################################################
group           centroid1 id 1           # define group names
1 atoms in group centroid1
group           centroid2 id 6002
1 atoms in group centroid2

fix		1 all nvt temp 275 275 100
fix             2 centroid1 smd cvel 35 -0.0001 couple centroid2 auto auto auto 0

thermo_style    custom step time ke pe temp press etotal f_1 f_2[1] f_2[2] f_2[3] f_2[4] f_2[5] f_2[6] f_2[7] # SMD fix computes a "vector" of numbers, have to print the individual elements, as thermo custom only prints scalar numbers (7 quantities described in manual)
thermo          200                  #give an output every x step

dump            1 all custom 200 twoParticles.lammpstrj id type element xu yu zu fx fy fz    #print every x step
dump_modify     1 element A B C     #give element names

run		400000
  update every 1 steps, delay 0 steps, check yes
Step Time KinEng PotEng Temp Press TotEng f_1 f_2[1] f_2[2] f_2[3] f_2[4] f_2[5] f_2[6] f_2[7]
0            0    9837.4929     -34496.1          275  0.038604638   -24658.607            0            0            0            0            0    199.98019    199.98059            0
Averages over the last 1001 of 2001 rows, steps 200000 to 400000:
KinEng PotEng Temp Press TotEng f_1 f_2[1] f_2[2] f_2[3] f_2[4] f_2[5] f_2[6] f_2[7]
9838.73 -37656.6 275.035 0.250849 -27817.9 4949.92 165.041 -10.4582 0.594613 165.377 79.9802 84.7056 2728.1
Loop time of 5593.02 on 8 procs for 400000 steps with 12002 atoms
